REMARK  10 active torsions:
REMARK  status: ('A' for Active; 'I' for Inactive)
REMARK       I    between atoms: N_2  and  C1_4 
REMARK    1  A    between atoms: C1_4  and  C2_6 
REMARK    2  A    between atoms: C2_6  and  C3_7 
REMARK    3  A    between atoms: C2_6  and  N1_14 
REMARK    4  A    between atoms: C3_7  and  C4_8 
REMARK       I    between atoms: N1_14  and  C10_16 
REMARK    5  A    between atoms: C10_16  and  C11_18 
REMARK    6  A    between atoms: C11_18  and  C12_19 
REMARK    7  A    between atoms: C11_18  and  S_23 
REMARK    8  A    between atoms: C12_19  and  C13_20 
REMARK    9  A    between atoms: S_23  and  C16_24 
REMARK   10  A    between atoms: C20_28  and  S1_29 
ROOT
HETATM    1  N1  UNL A   1       5.437  -2.350  -1.217  1.00  0.00    -0.346 N 
HETATM    2  H1  UNL A   1       4.945  -3.221  -1.373  1.00  0.00     0.163 HD
HETATM    3  C10 UNL A   1       6.653  -2.184  -1.841  1.00  0.00     0.232 C 
HETATM    4  O1  UNL A   1       7.288  -1.152  -1.717  1.00  0.00    -0.272 OA
ENDROOT
BRANCH   1   5
HETATM    5  C2  UNL A   1       4.768  -1.289  -0.434  1.00  0.00     0.180 C 
BRANCH   5   6
HETATM    6  C1  UNL A   1       3.233  -1.488  -0.454  1.00  0.00     0.240 C 
HETATM    7  N   UNL A   1       2.477  -0.353  -0.258  1.00  0.00    -0.364 N 
HETATM    8  C   UNL A   1       1.004  -0.378  -0.287  1.00  0.00     0.149 C 
HETATM    9  HN  UNL A   1       2.976   0.509  -0.082  1.00  0.00     0.161 HD
HETATM   10  O   UNL A   1       2.707  -2.567  -0.653  1.00  0.00    -0.271 OA
ENDBRANCH   5   6
BRANCH   5  11
HETATM   11  C3  UNL A   1       5.328  -1.223   1.010  1.00  0.00     0.073 C 
BRANCH  11  12
HETATM   12  C4  UNL A   1       4.784  -0.037   1.802  1.00  0.00    -0.056 A 
HETATM   13  C5  UNL A   1       3.869  -0.243   2.852  1.00  0.00     0.007 A 
HETATM   14  C6  UNL A   1       3.363   0.854   3.569  1.00  0.00     0.001 A 
HETATM   15  C7  UNL A   1       3.774   2.157   3.244  1.00  0.00     0.000 A 
HETATM   16  C8  UNL A   1       4.690   2.364   2.200  1.00  0.00     0.001 A 
HETATM   17  C9  UNL A   1       5.197   1.269   1.482  1.00  0.00     0.007 A 
ENDBRANCH  11  12
ENDBRANCH   5  11
ENDBRANCH   1   5
BRANCH   3  18
HETATM   18  C11 UNL A   1       7.126  -3.396  -2.666  1.00  0.00     0.140 C 
BRANCH  18  19
HETATM   19  C12 UNL A   1       6.786  -3.256  -4.180  1.00  0.00     0.028 C 
BRANCH  19  20
HETATM   20  C13 UNL A   1       5.258  -3.193  -4.487  1.00  0.00    -0.021 C 
HETATM   21  C14 UNL A   1       4.744  -1.734  -4.585  1.00  0.00     0.009 C 
HETATM   22  C15 UNL A   1       4.929  -3.941  -5.801  1.00  0.00     0.009 C 
ENDBRANCH  19  20
ENDBRANCH  18  19
BRANCH  18  23
HETATM   23  S   UNL A   1       8.943  -3.699  -2.400  1.00  0.00    -0.149 SA
BRANCH  23  24
HETATM   24  C16 UNL A   1       9.219  -5.387  -3.115  1.00  0.00     0.061 C 
HETATM   25  C17 UNL A   1      10.726  -5.700  -3.152  1.00  0.00     0.016 C 
HETATM   26  C18 UNL A   1      10.862  -7.227  -3.008  1.00  0.00     0.002 C 
HETATM   27  C19 UNL A   1       9.510  -7.748  -2.478  1.00  0.00     0.016 C 
HETATM   28  C20 UNL A   1       8.585  -6.526  -2.286  1.00  0.00     0.058 C 
BRANCH  28  29
HETATM   29  S1  UNL A   1       6.824  -6.908  -2.701  1.00  0.00    -0.176 SA
HETATM   30  HS1 UNL A   1       7.020  -7.153  -4.011  1.00  0.00     0.102 HD
ENDBRANCH  28  29
ENDBRANCH  23  24
ENDBRANCH  18  23
ENDBRANCH   3  18
TORSDOF 10
